REMARK  1 active torsions:
REMARK  status: ('A' for Active; 'I' for Inactive)
REMARK    1  A    between atoms: C_5  and  C_10 
ROOT
HETATM    1  C     *     0      -2.735  -2.634   0.007  0.00  0.00     0.093 A 
HETATM    2  C     *     0      -1.273  -2.657   0.006  0.00  0.00     0.187 A 
HETATM    3  C     *     0      -0.649  -1.325   0.002  0.00  0.00     0.048 A 
HETATM    4  C     *     0      -1.471  -0.186  -0.000  0.00  0.00     0.090 A 
HETATM    5  C     *     0      -3.453  -1.486   0.003  0.00  0.00     0.090 A 
HETATM    6  C     *     0       0.743  -1.148   0.000  0.00  0.00     0.018 A 
HETATM    7  C     *     0      -0.922   1.110  -0.004  0.00  0.00     0.038 A 
HETATM    8  C     *     0       0.459   1.253  -0.008  0.00  0.00     0.003 A 
HETATM    9  C     *     0       1.293   0.126  -0.004  0.00  0.00     0.001 A 
HETATM   10  O     *     0      -0.622  -3.711   0.008  0.00  0.00    -0.287 OA
HETATM   11  O     *     0      -2.854  -0.232   0.001  0.00  0.00    -0.309 OA
ENDROOT
BRANCH   5  12
HETATM   12  C     *     0      -4.914  -1.381   0.001  0.00  0.00    -0.002 A 
HETATM   13  C     *     0      -5.531  -0.119   0.013  0.00  0.00     0.014 A 
HETATM   14  C     *     0      -6.920  -0.017   0.015  0.00  0.00     0.001 A 
HETATM   15  C     *     0      -7.711  -1.167  -0.001  0.00  0.00     0.000 A 
HETATM   16  C     *     0      -7.103  -2.421  -0.016  0.00  0.00     0.001 A 
HETATM   17  C     *     0      -5.714  -2.534  -0.015  0.00  0.00     0.014 A 
ENDBRANCH   5  12
TORSDOF 1
